


 39 41  0  0  0  0  0  0  0  0999 V2000
   19.4870   -7.8227   23.3708 C   0  0  0  0  0  0  0  0  0  0  0  0
   20.6122   -7.3562   24.2923 C   0  0  0  0  0  0  0  0  0  0  0  0
   20.1004   -7.7437   25.6595 C   0  0  0  0  0  0  0  0  0  0  0  0
   18.5780   -7.7219   25.4709 C   0  0  0  0  0  0  0  0  0  0  0  0
   18.2795   -7.8758   24.0979 O   0  0  0  0  0  0  0  0  0  0  0  0
   20.5476   -9.0218   26.0504 O   0  0  0  0  0  0  0  0  0  0  0  0
   21.8280   -7.9913   23.9919 O   0  0  0  0  0  0  0  0  0  0  0  0
   20.2209   -9.6838   25.3855 H   0  0  0  0  0  0  0  0  0  0  0  0
   22.1557   -7.5819   23.1484 H   0  0  0  0  0  0  0  0  0  0  0  0
   17.5634   -8.3406   19.4120 C   0  0  0  0  0  0  0  0  0  0  0  0
   17.5808   -7.2235   18.6163 N   0  0  0  0  0  0  0  0  0  0  0  0
   18.1731   -6.0627   19.0295 C   0  0  0  0  0  0  0  0  0  0  0  0
   18.7642   -6.0552   20.2880 C   0  0  0  0  0  0  0  0  0  0  0  0
   18.7342   -7.1692   21.0546 C   0  0  0  0  0  0  0  0  0  0  0  0
   18.1437   -8.3195   20.6500 N   0  0  0  0  0  0  0  0  0  0  0  0
   19.3341   -6.9228   22.2255 N   0  0  0  0  0  0  0  0  0  0  0  0
   19.7164   -5.6228   22.1249 C   0  0  0  0  0  0  0  0  0  0  0  0
   19.3836   -5.0512   20.9354 N   0  0  0  0  0  0  0  0  0  0  0  0
   18.1700   -4.9070   18.1920 N   0  0  0  0  0  0  0  0  0  0  0  0
   18.6180   -4.0164   18.5043 H   0  0  0  0  0  0  0  0  0  0  0  0
   17.7208   -4.9427   17.2501 H   0  0  0  0  0  0  0  0  0  0  0  0
   17.9585   -6.4133   25.9765 C   0  0  0  0  0  0  0  0  0  0  0  0
   16.6204   -6.6576   26.3369 O   0  0  0  0  0  0  0  0  0  0  0  0
   16.2683   -5.8426   27.7948 P   0  0  0  0  0  0  0  0  0  0  0  0
   16.4606   -4.3482   27.6559 O   0  0  0  0  0  0  0  0  0  0  0  0
   17.2991   -6.4210   29.0071 O   0  0  0  0  0  0  0  0  0  0  0  0
   18.1641   -5.9655   28.8510 H   0  0  0  0  0  0  0  0  0  0  0  0
   14.6661   -6.1763   28.2643 O   0  0  0  0  0  0  0  0  0  0  0  0
   14.6792   -7.5798   29.2322 P   0  0  0  0  0  0  0  0  0  0  0  0
   13.2876   -8.1715   29.1955 O   0  0  0  0  0  0  0  0  0  0  0  0
   15.7642   -8.7112   28.5871 O   0  0  0  0  0  0  0  0  0  0  0  0
   16.6105   -8.5700   29.0831 H   0  0  0  0  0  0  0  0  0  0  0  0
   15.1073   -7.1856   30.8366 O   0  0  0  0  0  0  0  0  0  0  0  0
   14.3921   -5.6908   31.2294 P   0  0  0  0  0  0  0  0  0  0  0  0
   14.2106   -5.5483   32.7250 O   0  0  0  0  0  0  0  0  0  0  0  0
   15.4063   -4.4527   30.6787 O   0  0  0  0  0  0  0  0  0  0  0  0
   12.8911   -5.5499   30.4578 O   0  0  0  0  0  0  0  0  0  0  0  0
   15.0171   -3.6202   31.0482 H   0  0  0  0  0  0  0  0  0  0  0  0
   12.5280   -4.6810   30.7633 H   0  0  0  0  0  0  0  0  0  0  0  0
 10 11  2  0  0  0
 10 15  1  0  0  0
 11 12  1  0  0  0
 12 13  2  0  0  0
 12 19  1  0  0  0
 13 14  1  0  0  0
 13 18  1  0  0  0
 14 15  2  0  0  0
 14 16  1  0  0  0
 16 17  1  0  0  0
 16  1  1  0  0  0
 17 18  2  0  0  0
  1  2  1  0  0  0
  1  5  1  0  0  0
  2  3  1  0  0  0
  2  7  1  0  0  0
  3  4  1  0  0  0
  3  6  1  0  0  0
  4  5  1  0  0  0
  4 22  1  0  0  0
 22 23  1  0  0  0
 23 24  1  0  0  0
 24 25  2  0  0  0
 24 26  1  0  0  0
 24 28  1  0  0  0
 26 27  1  0  0  0
 28 29  1  0  0  0
 29 30  2  0  0  0
 29 31  1  0  0  0
 29 33  1  0  0  0
 31 32  1  0  0  0
 33 34  1  0  0  0
 34 35  2  0  0  0
 34 36  1  0  0  0
 34 37  1  0  0  0
 36 38  1  0  0  0
 37 39  1  0  0  0
  6  8  1  0  0  0
  7  9  1  0  0  0
 19 20  1  0  0  0
 19 21  1  0  0  0
M  END
> <COMPND>
    ../0-casp/qXn6xH.pdb 

> <AUTHOR>
    GENERATED BY OPEN BABEL 3.1.0

> <MASTER>
        0    0    0    0    0    0    0    0   47    0   47    0

> <minimizedAffinity>
-5.29158

> <CNNscore>
0.3980111480

> <CNNaffinity>
4.2466988564

> <CNN_VS>
1.6902334690

> <CNNaffinity_variance>
0.1517078429

$$$$



 39 41  0  0  0  0  0  0  0  0999 V2000
   -3.8528   22.1992   -9.5781 C   0  0  0  0  0  0  0  0  0  0  0  0
   -5.0034   22.0506  -10.5715 C   0  0  0  0  0  0  0  0  0  0  0  0
   -4.8026   20.6504  -11.1011 C   0  0  0  0  0  0  0  0  0  0  0  0
   -3.2936   20.4348  -10.9276 C   0  0  0  0  0  0  0  0  0  0  0  0
   -2.8112   21.3173   -9.9343 O   0  0  0  0  0  0  0  0  0  0  0  0
   -5.5411   19.6968  -10.3719 O   0  0  0  0  0  0  0  0  0  0  0  0
   -6.2524   22.1973   -9.9469 O   0  0  0  0  0  0  0  0  0  0  0  0
   -5.2424   19.7281   -9.4249 H   0  0  0  0  0  0  0  0  0  0  0  0
   -6.3556   23.1660   -9.7533 H   0  0  0  0  0  0  0  0  0  0  0  0
    0.2520   23.8648   -9.4466 C   0  0  0  0  0  0  0  0  0  0  0  0
    0.3161   25.2342   -9.4928 N   0  0  0  0  0  0  0  0  0  0  0  0
   -0.8151   25.9996   -9.5508 C   0  0  0  0  0  0  0  0  0  0  0  0
   -2.0386   25.3391   -9.5565 C   0  0  0  0  0  0  0  0  0  0  0  0
   -2.0765   23.9878   -9.5103 C   0  0  0  0  0  0  0  0  0  0  0  0
   -0.9571   23.2264   -9.4578 N   0  0  0  0  0  0  0  0  0  0  0  0
   -3.3487   23.5741   -9.5547 N   0  0  0  0  0  0  0  0  0  0  0  0
   -4.0609   24.7286   -9.6322 C   0  0  0  0  0  0  0  0  0  0  0  0
   -3.2831   25.8455   -9.6321 N   0  0  0  0  0  0  0  0  0  0  0  0
   -0.7274   27.4229   -9.6110 N   0  0  0  0  0  0  0  0  0  0  0  0
   -1.5886   28.0124   -9.6590 H   0  0  0  0  0  0  0  0  0  0  0  0
    0.2054   27.8920   -9.6023 H   0  0  0  0  0  0  0  0  0  0  0  0
   -2.5277   20.6805  -12.2333 C   0  0  0  0  0  0  0  0  0  0  0  0
   -1.2123   21.0686  -11.9182 O   0  0  0  0  0  0  0  0  0  0  0  0
   -0.1162   20.2108  -12.9065 P   0  0  0  0  0  0  0  0  0  0  0  0
    0.9126   19.4694  -12.0809 O   0  0  0  0  0  0  0  0  0  0  0  0
    0.6783   21.3081  -13.9219 O   0  0  0  0  0  0  0  0  0  0  0  0
    1.3722   21.7298  -13.3555 H   0  0  0  0  0  0  0  0  0  0  0  0
   -0.9697   19.1111  -13.8868 O   0  0  0  0  0  0  0  0  0  0  0  0
   -0.3644   19.2376  -15.4756 P   0  0  0  0  0  0  0  0  0  0  0  0
   -1.0275   18.1588  -16.3030 O   0  0  0  0  0  0  0  0  0  0  0  0
   -0.7757   20.7474  -16.1274 O   0  0  0  0  0  0  0  0  0  0  0  0
    0.0143   21.3232  -15.9650 H   0  0  0  0  0  0  0  0  0  0  0  0
    1.3288   19.0236  -15.4802 O   0  0  0  0  0  0  0  0  0  0  0  0
    1.9643   19.8133  -16.8487 P   0  0  0  0  0  0  0  0  0  0  0  0
    2.1208   21.2977  -16.5992 O   0  0  0  0  0  0  0  0  0  0  0  0
    3.4838   19.1503  -17.1899 O   0  0  0  0  0  0  0  0  0  0  0  0
    0.9490   19.5639  -18.1811 O   0  0  0  0  0  0  0  0  0  0  0  0
    3.8620   19.7295  -17.8989 H   0  0  0  0  0  0  0  0  0  0  0  0
    1.3635   20.0795  -18.9175 H   0  0  0  0  0  0  0  0  0  0  0  0
 10 11  2  0  0  0
 10 15  1  0  0  0
 11 12  1  0  0  0
 12 13  2  0  0  0
 12 19  1  0  0  0
 13 14  1  0  0  0
 13 18  1  0  0  0
 14 15  2  0  0  0
 14 16  1  0  0  0
 16 17  1  0  0  0
 16  1  1  0  0  0
 17 18  2  0  0  0
  1  2  1  0  0  0
  1  5  1  0  0  0
  2  3  1  0  0  0
  2  7  1  0  0  0
  3  4  1  0  0  0
  3  6  1  0  0  0
  4  5  1  0  0  0
  4 22  1  0  0  0
 22 23  1  0  0  0
 23 24  1  0  0  0
 24 25  2  0  0  0
 24 26  1  0  0  0
 24 28  1  0  0  0
 26 27  1  0  0  0
 28 29  1  0  0  0
 29 30  2  0  0  0
 29 31  1  0  0  0
 29 33  1  0  0  0
 31 32  1  0  0  0
 33 34  1  0  0  0
 34 35  2  0  0  0
 34 36  1  0  0  0
 34 37  1  0  0  0
 36 38  1  0  0  0
 37 39  1  0  0  0
  6  8  1  0  0  0
  7  9  1  0  0  0
 19 20  1  0  0  0
 19 21  1  0  0  0
M  END
> <COMPND>
    ../0-casp/qXn6xH.pdb 

> <AUTHOR>
    GENERATED BY OPEN BABEL 3.1.0

> <MASTER>
        0    0    0    0    0    0    0    0   47    0   47    0

> <minimizedAffinity>
-6.01838

> <CNNscore>
0.2912031114

> <CNNaffinity>
4.1791405678

> <CNN_VS>
1.2169787884

> <CNNaffinity_variance>
0.1749698222

$$$$



 39 41  0  0  0  0  0  0  0  0999 V2000
    9.6452   19.8005  -20.0831 C   0  0  0  0  0  0  0  0  0  0  0  0
    9.0898   21.2013  -19.8339 C   0  0  0  0  0  0  0  0  0  0  0  0
   10.0670   22.0802  -20.5780 C   0  0  0  0  0  0  0  0  0  0  0  0
   11.3556   21.2480  -20.5582 C   0  0  0  0  0  0  0  0  0  0  0  0
   11.0251   19.8878  -20.3618 O   0  0  0  0  0  0  0  0  0  0  0  0
    9.6477   22.3396  -21.8984 O   0  0  0  0  0  0  0  0  0  0  0  0
    7.7832   21.3389  -20.3297 O   0  0  0  0  0  0  0  0  0  0  0  0
    9.5671   21.4724  -22.3765 H   0  0  0  0  0  0  0  0  0  0  0  0
    7.1939   20.8390  -19.7057 H   0  0  0  0  0  0  0  0  0  0  0  0
    6.0791   17.6130  -18.6208 C   0  0  0  0  0  0  0  0  0  0  0  0
    6.2956   16.8463  -17.5041 N   0  0  0  0  0  0  0  0  0  0  0  0
    7.5199   16.7990  -16.8979 C   0  0  0  0  0  0  0  0  0  0  0  0
    8.5416   17.5621  -17.4521 C   0  0  0  0  0  0  0  0  0  0  0  0
    8.3041   18.3101  -18.5537 C   0  0  0  0  0  0  0  0  0  0  0  0
    7.0931   18.3553  -19.1596 N   0  0  0  0  0  0  0  0  0  0  0  0
    9.4300   18.9323  -18.9234 N   0  0  0  0  0  0  0  0  0  0  0  0
   10.3421   18.5226  -18.0033 C   0  0  0  0  0  0  0  0  0  0  0  0
    9.8275   17.6743  -17.0716 N   0  0  0  0  0  0  0  0  0  0  0  0
    7.7287   15.9854  -15.7439 N   0  0  0  0  0  0  0  0  0  0  0  0
    8.6632   15.9428  -15.2789 H   0  0  0  0  0  0  0  0  0  0  0  0
    6.9418   15.4249  -15.3478 H   0  0  0  0  0  0  0  0  0  0  0  0
   12.3098   21.6992  -19.4456 C   0  0  0  0  0  0  0  0  0  0  0  0
   13.5392   22.0625  -20.0259 O   0  0  0  0  0  0  0  0  0  0  0  0
   14.5973   22.6215  -18.8086 P   0  0  0  0  0  0  0  0  0  0  0  0
   13.8373   23.2055  -17.6376 O   0  0  0  0  0  0  0  0  0  0  0  0
   15.6027   23.8156  -19.4642 O   0  0  0  0  0  0  0  0  0  0  0  0
   15.0483   24.6353  -19.4910 H   0  0  0  0  0  0  0  0  0  0  0  0
   15.5829   21.3400  -18.2745 O   0  0  0  0  0  0  0  0  0  0  0  0
   16.9197   22.0069  -17.4528 P   0  0  0  0  0  0  0  0  0  0  0  0
   17.9758   22.3287  -18.4867 O   0  0  0  0  0  0  0  0  0  0  0  0
   16.4605   23.4461  -16.6839 O   0  0  0  0  0  0  0  0  0  0  0  0
   16.2392   23.1835  -15.7543 H   0  0  0  0  0  0  0  0  0  0  0  0
   17.5312   20.8890  -16.3173 O   0  0  0  0  0  0  0  0  0  0  0  0
   18.2453   21.7602  -15.0401 P   0  0  0  0  0  0  0  0  0  0  0  0
   19.3172   20.9421  -14.3531 O   0  0  0  0  0  0  0  0  0  0  0  0
   18.9481   23.1619  -15.6774 O   0  0  0  0  0  0  0  0  0  0  0  0
   17.0614   22.2070  -13.9146 O   0  0  0  0  0  0  0  0  0  0  0  0
   19.4593   23.5558  -14.9260 H   0  0  0  0  0  0  0  0  0  0  0  0
   17.5567   22.6710  -13.1940 H   0  0  0  0  0  0  0  0  0  0  0  0
 10 11  2  0  0  0
 10 15  1  0  0  0
 11 12  1  0  0  0
 12 13  2  0  0  0
 12 19  1  0  0  0
 13 14  1  0  0  0
 13 18  1  0  0  0
 14 15  2  0  0  0
 14 16  1  0  0  0
 16 17  1  0  0  0
 16  1  1  0  0  0
 17 18  2  0  0  0
  1  2  1  0  0  0
  1  5  1  0  0  0
  2  3  1  0  0  0
  2  7  1  0  0  0
  3  4  1  0  0  0
  3  6  1  0  0  0
  4  5  1  0  0  0
  4 22  1  0  0  0
 22 23  1  0  0  0
 23 24  1  0  0  0
 24 25  2  0  0  0
 24 26  1  0  0  0
 24 28  1  0  0  0
 26 27  1  0  0  0
 28 29  1  0  0  0
 29 30  2  0  0  0
 29 31  1  0  0  0
 29 33  1  0  0  0
 31 32  1  0  0  0
 33 34  1  0  0  0
 34 35  2  0  0  0
 34 36  1  0  0  0
 34 37  1  0  0  0
 36 38  1  0  0  0
 37 39  1  0  0  0
  6  8  1  0  0  0
  7  9  1  0  0  0
 19 20  1  0  0  0
 19 21  1  0  0  0
M  END
> <COMPND>
    ../0-casp/qXn6xH.pdb 

> <AUTHOR>
    GENERATED BY OPEN BABEL 3.1.0

> <MASTER>
        0    0    0    0    0    0    0    0   47    0   47    0

> <minimizedAffinity>
-5.88877

> <CNNscore>
0.2711971998

> <CNNaffinity>
4.2825536728

> <CNN_VS>
1.1614165306

> <CNNaffinity_variance>
0.0173731707

$$$$



 39 41  0  0  0  0  0  0  0  0999 V2000
    6.5702   17.3279  -17.2281 C   0  0  0  0  0  0  0  0  0  0  0  0
    7.3189   17.2468  -15.8992 C   0  0  0  0  0  0  0  0  0  0  0  0
    6.2298   16.8490  -14.9313 C   0  0  0  0  0  0  0  0  0  0  0  0
    4.9643   17.4053  -15.5965 C   0  0  0  0  0  0  0  0  0  0  0  0
    5.2031   17.5704  -16.9799 O   0  0  0  0  0  0  0  0  0  0  0  0
    6.1487   15.4512  -14.7698 O   0  0  0  0  0  0  0  0  0  0  0  0
    8.3517   16.2963  -15.9409 O   0  0  0  0  0  0  0  0  0  0  0  0
    5.9553   15.0452  -15.6557 H   0  0  0  0  0  0  0  0  0  0  0  0
    9.0771   16.6963  -16.4889 H   0  0  0  0  0  0  0  0  0  0  0  0
   10.4493   17.7747  -19.3242 C   0  0  0  0  0  0  0  0  0  0  0  0
   10.5634   18.9129  -20.0811 N   0  0  0  0  0  0  0  0  0  0  0  0
    9.5524   19.8308  -20.1458 C   0  0  0  0  0  0  0  0  0  0  0  0
    8.4010   19.5718  -19.4106 C   0  0  0  0  0  0  0  0  0  0  0  0
    8.3117   18.4424  -18.6716 C   0  0  0  0  0  0  0  0  0  0  0  0
    9.3099   17.5285  -18.6094 N   0  0  0  0  0  0  0  0  0  0  0  0
    7.1136   18.3903  -18.0772 N   0  0  0  0  0  0  0  0  0  0  0  0
    6.4969   19.5271  -18.4939 C   0  0  0  0  0  0  0  0  0  0  0  0
    7.2655   20.2883  -19.3199 N   0  0  0  0  0  0  0  0  0  0  0  0
    9.6852   21.0030  -20.9491 N   0  0  0  0  0  0  0  0  0  0  0  0
    8.9143   21.7059  -21.0049 H   0  0  0  0  0  0  0  0  0  0  0  0
   10.5630   21.1728  -21.4885 H   0  0  0  0  0  0  0  0  0  0  0  0
    4.5475   18.7525  -14.9941 C   0  0  0  0  0  0  0  0  0  0  0  0
    5.6828   19.5797  -14.9106 O   0  0  0  0  0  0  0  0  0  0  0  0
    5.6475   20.4437  -13.4388 P   0  0  0  0  0  0  0  0  0  0  0  0
    5.8274   19.5241  -12.2507 O   0  0  0  0  0  0  0  0  0  0  0  0
    4.1559   21.2333  -13.3041 O   0  0  0  0  0  0  0  0  0  0  0  0
    3.5169   20.5335  -13.0179 H   0  0  0  0  0  0  0  0  0  0  0  0
    6.8705   21.6282  -13.4413 O   0  0  0  0  0  0  0  0  0  0  0  0
    6.9775   22.2759  -15.0147 P   0  0  0  0  0  0  0  0  0  0  0  0
    7.9616   21.4286  -15.7903 O   0  0  0  0  0  0  0  0  0  0  0  0
    5.4664   22.1827  -15.7772 O   0  0  0  0  0  0  0  0  0  0  0  0
    5.0462   23.0676  -15.6276 H   0  0  0  0  0  0  0  0  0  0  0  0
    7.5182   23.8934  -14.9509 O   0  0  0  0  0  0  0  0  0  0  0  0
    9.2019   23.8851  -14.6954 P   0  0  0  0  0  0  0  0  0  0  0  0
    9.6868   25.2324  -14.2056 O   0  0  0  0  0  0  0  0  0  0  0  0
    9.5585   22.7146  -13.5259 O   0  0  0  0  0  0  0  0  0  0  0  0
   10.0009   23.4807  -16.1328 O   0  0  0  0  0  0  0  0  0  0  0  0
   10.5183   22.8446  -13.3186 H   0  0  0  0  0  0  0  0  0  0  0  0
   10.9646   23.5337  -15.9125 H   0  0  0  0  0  0  0  0  0  0  0  0
 10 11  2  0  0  0
 10 15  1  0  0  0
 11 12  1  0  0  0
 12 13  2  0  0  0
 12 19  1  0  0  0
 13 14  1  0  0  0
 13 18  1  0  0  0
 14 15  2  0  0  0
 14 16  1  0  0  0
 16 17  1  0  0  0
 16  1  1  0  0  0
 17 18  2  0  0  0
  1  2  1  0  0  0
  1  5  1  0  0  0
  2  3  1  0  0  0
  2  7  1  0  0  0
  3  4  1  0  0  0
  3  6  1  0  0  0
  4  5  1  0  0  0
  4 22  1  0  0  0
 22 23  1  0  0  0
 23 24  1  0  0  0
 24 25  2  0  0  0
 24 26  1  0  0  0
 24 28  1  0  0  0
 26 27  1  0  0  0
 28 29  1  0  0  0
 29 30  2  0  0  0
 29 31  1  0  0  0
 29 33  1  0  0  0
 31 32  1  0  0  0
 33 34  1  0  0  0
 34 35  2  0  0  0
 34 36  1  0  0  0
 34 37  1  0  0  0
 36 38  1  0  0  0
 37 39  1  0  0  0
  6  8  1  0  0  0
  7  9  1  0  0  0
 19 20  1  0  0  0
 19 21  1  0  0  0
M  END
> <COMPND>
    ../0-casp/qXn6xH.pdb 

> <AUTHOR>
    GENERATED BY OPEN BABEL 3.1.0

> <MASTER>
        0    0    0    0    0    0    0    0   47    0   47    0

> <minimizedAffinity>
-5.42429

> <CNNscore>
0.2665380239

> <CNNaffinity>
4.1778464317

> <CNN_VS>
1.1135549545

> <CNNaffinity_variance>
0.1502328813

$$$$



 39 41  0  0  0  0  0  0  0  0999 V2000
    6.9920  -30.9565  -21.7399 C   0  0  0  0  0  0  0  0  0  0  0  0
    7.1943  -29.9333  -20.6241 C   0  0  0  0  0  0  0  0  0  0  0  0
    5.7790  -29.6380  -20.1873 C   0  0  0  0  0  0  0  0  0  0  0  0
    4.9647  -29.9292  -21.4544 C   0  0  0  0  0  0  0  0  0  0  0  0
    5.7018  -30.8009  -22.2881 O   0  0  0  0  0  0  0  0  0  0  0  0
    5.3713  -30.4615  -19.1186 O   0  0  0  0  0  0  0  0  0  0  0  0
    7.9660  -30.4549  -19.5732 O   0  0  0  0  0  0  0  0  0  0  0  0
    5.4251  -31.4081  -19.4157 H   0  0  0  0  0  0  0  0  0  0  0  0
    8.9014  -30.4907  -19.9050 H   0  0  0  0  0  0  0  0  0  0  0  0
    8.2382  -33.5759  -25.0904 C   0  0  0  0  0  0  0  0  0  0  0  0
    9.1974  -33.0391  -25.9109 N   0  0  0  0  0  0  0  0  0  0  0  0
    9.7259  -31.8006  -25.6749 C   0  0  0  0  0  0  0  0  0  0  0  0
    9.2587  -31.1028  -24.5667 C   0  0  0  0  0  0  0  0  0  0  0  0
    8.3122  -31.6529  -23.7723 C   0  0  0  0  0  0  0  0  0  0  0  0
    7.7830  -32.8779  -24.0064 N   0  0  0  0  0  0  0  0  0  0  0  0
    7.9978  -30.7970  -22.7925 N   0  0  0  0  0  0  0  0  0  0  0  0
    8.7895  -29.7204  -23.0381 C   0  0  0  0  0  0  0  0  0  0  0  0
    9.5889  -29.8739  -24.1289 N   0  0  0  0  0  0  0  0  0  0  0  0
   10.7143  -31.2538  -26.5474 N   0  0  0  0  0  0  0  0  0  0  0  0
   11.1188  -30.3064  -26.3737 H   0  0  0  0  0  0  0  0  0  0  0  0
   11.0484  -31.8021  -27.3708 H   0  0  0  0  0  0  0  0  0  0  0  0
    4.6383  -28.6476  -22.2307 C   0  0  0  0  0  0  0  0  0  0  0  0
    3.2409  -28.4866  -22.2682 O   0  0  0  0  0  0  0  0  0  0  0  0
    2.7800  -27.8904  -23.7999 P   0  0  0  0  0  0  0  0  0  0  0  0
    3.3986  -28.6988  -24.9195 O   0  0  0  0  0  0  0  0  0  0  0  0
    3.2884  -26.2811  -23.9357 O   0  0  0  0  0  0  0  0  0  0  0  0
    4.2555  -26.3312  -24.1411 H   0  0  0  0  0  0  0  0  0  0  0  0
    1.0833  -27.9187  -23.9380 O   0  0  0  0  0  0  0  0  0  0  0  0
    0.4275  -27.1386  -22.5711 P   0  0  0  0  0  0  0  0  0  0  0  0
   -0.2193  -28.1991  -21.7080 O   0  0  0  0  0  0  0  0  0  0  0  0
    1.6678  -26.4010  -21.6818 O   0  0  0  0  0  0  0  0  0  0  0  0
    1.6868  -25.4610  -21.9948 H   0  0  0  0  0  0  0  0  0  0  0  0
   -0.7339  -25.9842  -23.0518 O   0  0  0  0  0  0  0  0  0  0  0  0
   -0.0338  -24.4368  -22.9271 P   0  0  0  0  0  0  0  0  0  0  0  0
    1.2347  -24.3435  -23.7470 O   0  0  0  0  0  0  0  0  0  0  0  0
   -1.1463  -23.2995  -23.5048 O   0  0  0  0  0  0  0  0  0  0  0  0
    0.3095  -24.0887  -21.3056 O   0  0  0  0  0  0  0  0  0  0  0  0
   -0.6452  -22.4456  -23.5374 H   0  0  0  0  0  0  0  0  0  0  0  0
    0.7431  -23.1989  -21.3221 H   0  0  0  0  0  0  0  0  0  0  0  0
 10 11  2  0  0  0
 10 15  1  0  0  0
 11 12  1  0  0  0
 12 13  2  0  0  0
 12 19  1  0  0  0
 13 14  1  0  0  0
 13 18  1  0  0  0
 14 15  2  0  0  0
 14 16  1  0  0  0
 16 17  1  0  0  0
 16  1  1  0  0  0
 17 18  2  0  0  0
  1  2  1  0  0  0
  1  5  1  0  0  0
  2  3  1  0  0  0
  2  7  1  0  0  0
  3  4  1  0  0  0
  3  6  1  0  0  0
  4  5  1  0  0  0
  4 22  1  0  0  0
 22 23  1  0  0  0
 23 24  1  0  0  0
 24 25  2  0  0  0
 24 26  1  0  0  0
 24 28  1  0  0  0
 26 27  1  0  0  0
 28 29  1  0  0  0
 29 30  2  0  0  0
 29 31  1  0  0  0
 29 33  1  0  0  0
 31 32  1  0  0  0
 33 34  1  0  0  0
 34 35  2  0  0  0
 34 36  1  0  0  0
 34 37  1  0  0  0
 36 38  1  0  0  0
 37 39  1  0  0  0
  6  8  1  0  0  0
  7  9  1  0  0  0
 19 20  1  0  0  0
 19 21  1  0  0  0
M  END
> <COMPND>
    ../0-casp/qXn6xH.pdb 

> <AUTHOR>
    GENERATED BY OPEN BABEL 3.1.0

> <MASTER>
        0    0    0    0    0    0    0    0   47    0   47    0

> <minimizedAffinity>
-6.05816

> <CNNscore>
0.2648636699

> <CNNaffinity>
4.0853590965

> <CNN_VS>
1.0820631981

> <CNNaffinity_variance>
0.5881037712

$$$$



 39 41  0  0  0  0  0  0  0  0999 V2000
   10.1174  -28.5984  -19.1646 C   0  0  0  0  0  0  0  0  0  0  0  0
   10.1699  -29.1385  -17.7369 C   0  0  0  0  0  0  0  0  0  0  0  0
   11.5048  -28.6336  -17.2426 C   0  0  0  0  0  0  0  0  0  0  0  0
   12.3180  -28.5008  -18.5366 C   0  0  0  0  0  0  0  0  0  0  0  0
   11.4308  -28.3814  -19.6306 O   0  0  0  0  0  0  0  0  0  0  0  0
   11.3912  -27.3937  -16.5822 O   0  0  0  0  0  0  0  0  0  0  0  0
    9.1079  -28.6526  -16.9572 O   0  0  0  0  0  0  0  0  0  0  0  0
   11.0143  -26.7329  -17.2213 H   0  0  0  0  0  0  0  0  0  0  0  0
    8.2947  -29.1345  -17.2620 H   0  0  0  0  0  0  0  0  0  0  0  0
    5.8561  -29.7584  -19.5342 C   0  0  0  0  0  0  0  0  0  0  0  0
    5.5888  -30.6406  -20.5500 N   0  0  0  0  0  0  0  0  0  0  0  0
    6.5827  -31.1249  -21.3540 C   0  0  0  0  0  0  0  0  0  0  0  0
    7.8804  -30.6942  -21.1022 C   0  0  0  0  0  0  0  0  0  0  0  0
    8.1194  -29.8237  -20.0948 C   0  0  0  0  0  0  0  0  0  0  0  0
    7.1359  -29.3381  -19.2995 N   0  0  0  0  0  0  0  0  0  0  0  0
    9.4248  -29.5302  -20.0573 N   0  0  0  0  0  0  0  0  0  0  0  0
    9.9481  -30.2553  -21.0804 C   0  0  0  0  0  0  0  0  0  0  0  0
    9.0213  -30.9934  -21.7502 N   0  0  0  0  0  0  0  0  0  0  0  0
    6.2827  -32.0326  -22.4138 N   0  0  0  0  0  0  0  0  0  0  0  0
    7.0379  -32.4030  -23.0334 H   0  0  0  0  0  0  0  0  0  0  0  0
    5.2987  -32.3411  -22.5777 H   0  0  0  0  0  0  0  0  0  0  0  0
   13.2342  -29.7098  -18.7621 C   0  0  0  0  0  0  0  0  0  0  0  0
   14.1310  -29.8036  -17.6818 O   0  0  0  0  0  0  0  0  0  0  0  0
   15.7023  -29.4001  -18.2129 P   0  0  0  0  0  0  0  0  0  0  0  0
   16.1861  -30.3494  -19.2873 O   0  0  0  0  0  0  0  0  0  0  0  0
   16.7611  -29.4745  -16.8938 O   0  0  0  0  0  0  0  0  0  0  0  0
   16.9492  -30.4380  -16.7663 H   0  0  0  0  0  0  0  0  0  0  0  0
   15.7135  -27.8043  -18.8061 O   0  0  0  0  0  0  0  0  0  0  0  0
   15.7035  -26.7430  -17.4718 P   0  0  0  0  0  0  0  0  0  0  0  0
   17.1268  -26.6235  -16.9741 O   0  0  0  0  0  0  0  0  0  0  0  0
   15.1726  -25.2098  -17.9626 O   0  0  0  0  0  0  0  0  0  0  0  0
   14.2022  -25.1955  -17.7617 H   0  0  0  0  0  0  0  0  0  0  0  0
   14.6994  -27.3584  -16.2366 O   0  0  0  0  0  0  0  0  0  0  0  0
   14.6107  -26.1994  -14.9920 P   0  0  0  0  0  0  0  0  0  0  0  0
   14.9484  -26.8120  -13.6500 O   0  0  0  0  0  0  0  0  0  0  0  0
   15.7222  -24.9682  -15.3290 O   0  0  0  0  0  0  0  0  0  0  0  0
   13.0559  -25.5304  -14.9373 O   0  0  0  0  0  0  0  0  0  0  0  0
   15.7276  -24.3997  -14.5179 H   0  0  0  0  0  0  0  0  0  0  0  0
   13.0757  -24.9012  -14.1732 H   0  0  0  0  0  0  0  0  0  0  0  0
 10 11  2  0  0  0
 10 15  1  0  0  0
 11 12  1  0  0  0
 12 13  2  0  0  0
 12 19  1  0  0  0
 13 14  1  0  0  0
 13 18  1  0  0  0
 14 15  2  0  0  0
 14 16  1  0  0  0
 16 17  1  0  0  0
 16  1  1  0  0  0
 17 18  2  0  0  0
  1  2  1  0  0  0
  1  5  1  0  0  0
  2  3  1  0  0  0
  2  7  1  0  0  0
  3  4  1  0  0  0
  3  6  1  0  0  0
  4  5  1  0  0  0
  4 22  1  0  0  0
 22 23  1  0  0  0
 23 24  1  0  0  0
 24 25  2  0  0  0
 24 26  1  0  0  0
 24 28  1  0  0  0
 26 27  1  0  0  0
 28 29  1  0  0  0
 29 30  2  0  0  0
 29 31  1  0  0  0
 29 33  1  0  0  0
 31 32  1  0  0  0
 33 34  1  0  0  0
 34 35  2  0  0  0
 34 36  1  0  0  0
 34 37  1  0  0  0
 36 38  1  0  0  0
 37 39  1  0  0  0
  6  8  1  0  0  0
  7  9  1  0  0  0
 19 20  1  0  0  0
 19 21  1  0  0  0
M  END
> <COMPND>
    ../0-casp/qXn6xH.pdb 

> <AUTHOR>
    GENERATED BY OPEN BABEL 3.1.0

> <MASTER>
        0    0    0    0    0    0    0    0   47    0   47    0

> <minimizedAffinity>
-7.38468

> <CNNscore>
0.2378686070

> <CNNaffinity>
4.3442864418

> <CNN_VS>
1.0333694220

> <CNNaffinity_variance>
0.0628582388

$$$$



 39 41  0  0  0  0  0  0  0  0999 V2000
   17.8213   24.3241  -18.0462 C   0  0  0  0  0  0  0  0  0  0  0  0
   17.4285   23.1545  -18.9465 C   0  0  0  0  0  0  0  0  0  0  0  0
   16.2429   23.7049  -19.7032 C   0  0  0  0  0  0  0  0  0  0  0  0
   15.6796   24.7537  -18.7356 C   0  0  0  0  0  0  0  0  0  0  0  0
   16.6991   25.1538  -17.8419 O   0  0  0  0  0  0  0  0  0  0  0  0
   16.6214   24.2917  -20.9274 O   0  0  0  0  0  0  0  0  0  0  0  0
   18.4736   22.7886  -19.8100 O   0  0  0  0  0  0  0  0  0  0  0  0
   17.2531   25.0342  -20.7358 H   0  0  0  0  0  0  0  0  0  0  0  0
   19.1461   22.3182  -19.2506 H   0  0  0  0  0  0  0  0  0  0  0  0
   18.1980   20.2686  -16.2993 C   0  0  0  0  0  0  0  0  0  0  0  0
   18.7830   20.2313  -15.0592 N   0  0  0  0  0  0  0  0  0  0  0  0
   19.1866   21.3738  -14.4264 C   0  0  0  0  0  0  0  0  0  0  0  0
   18.9783   22.5809  -15.0842 C   0  0  0  0  0  0  0  0  0  0  0  0
   18.3995   22.5925  -16.3067 C   0  0  0  0  0  0  0  0  0  0  0  0
   18.0030   21.4615  -16.9385 N   0  0  0  0  0  0  0  0  0  0  0  0
   18.3269   23.8514  -16.7554 N   0  0  0  0  0  0  0  0  0  0  0  0
   18.8864   24.5829  -15.7564 C   0  0  0  0  0  0  0  0  0  0  0  0
   19.2996   23.8301  -14.7004 N   0  0  0  0  0  0  0  0  0  0  0  0
   19.8048   21.3133  -13.1414 N   0  0  0  0  0  0  0  0  0  0  0  0
   20.1184   22.1831  -12.6549 H   0  0  0  0  0  0  0  0  0  0  0  0
   19.9459   20.3925  -12.6698 H   0  0  0  0  0  0  0  0  0  0  0  0
   14.4918   24.2101  -17.9323 C   0  0  0  0  0  0  0  0  0  0  0  0
   14.0784   25.1950  -17.0162 O   0  0  0  0  0  0  0  0  0  0  0  0
   14.0814   24.5399  -15.4399 P   0  0  0  0  0  0  0  0  0  0  0  0
   15.2974   23.6713  -15.2019 O   0  0  0  0  0  0  0  0  0  0  0  0
   12.6860   23.6032  -15.2346 O   0  0  0  0  0  0  0  0  0  0  0  0
   12.8786   22.7471  -15.6929 H   0  0  0  0  0  0  0  0  0  0  0  0
   14.0408   25.8005  -14.2963 O   0  0  0  0  0  0  0  0  0  0  0  0
   14.6108   25.1871  -12.8112 P   0  0  0  0  0  0  0  0  0  0  0  0
   14.0973   26.0951  -11.7160 O   0  0  0  0  0  0  0  0  0  0  0  0
   13.9897   23.6304  -12.5576 O   0  0  0  0  0  0  0  0  0  0  0  0
   14.6937   23.0145  -12.8849 H   0  0  0  0  0  0  0  0  0  0  0  0
   16.3173   25.1610  -12.8002 O   0  0  0  0  0  0  0  0  0  0  0  0
   16.8259   23.7979  -11.9152 P   0  0  0  0  0  0  0  0  0  0  0  0
   16.1707   23.7560  -10.5518 O   0  0  0  0  0  0  0  0  0  0  0  0
   16.3892   22.4084  -12.7774 O   0  0  0  0  0  0  0  0  0  0  0  0
   18.5099   23.8221  -11.7370 O   0  0  0  0  0  0  0  0  0  0  0  0
   16.5823   21.6554  -12.1635 H   0  0  0  0  0  0  0  0  0  0  0  0
   18.7196   23.0265  -11.1864 H   0  0  0  0  0  0  0  0  0  0  0  0
 10 11  2  0  0  0
 10 15  1  0  0  0
 11 12  1  0  0  0
 12 13  2  0  0  0
 12 19  1  0  0  0
 13 14  1  0  0  0
 13 18  1  0  0  0
 14 15  2  0  0  0
 14 16  1  0  0  0
 16 17  1  0  0  0
 16  1  1  0  0  0
 17 18  2  0  0  0
  1  2  1  0  0  0
  1  5  1  0  0  0
  2  3  1  0  0  0
  2  7  1  0  0  0
  3  4  1  0  0  0
  3  6  1  0  0  0
  4  5  1  0  0  0
  4 22  1  0  0  0
 22 23  1  0  0  0
 23 24  1  0  0  0
 24 25  2  0  0  0
 24 26  1  0  0  0
 24 28  1  0  0  0
 26 27  1  0  0  0
 28 29  1  0  0  0
 29 30  2  0  0  0
 29 31  1  0  0  0
 29 33  1  0  0  0
 31 32  1  0  0  0
 33 34  1  0  0  0
 34 35  2  0  0  0
 34 36  1  0  0  0
 34 37  1  0  0  0
 36 38  1  0  0  0
 37 39  1  0  0  0
  6  8  1  0  0  0
  7  9  1  0  0  0
 19 20  1  0  0  0
 19 21  1  0  0  0
M  END
> <COMPND>
    ../0-casp/qXn6xH.pdb 

> <AUTHOR>
    GENERATED BY OPEN BABEL 3.1.0

> <MASTER>
        0    0    0    0    0    0    0    0   47    0   47    0

> <minimizedAffinity>
-5.79896

> <CNNscore>
0.2130030841

> <CNNaffinity>
3.7599761486

> <CNN_VS>
0.8008865118

> <CNNaffinity_variance>
0.7552024126

$$$$



 39 41  0  0  0  0  0  0  0  0999 V2000
    6.3510   17.4210  -17.1721 C   0  0  0  0  0  0  0  0  0  0  0  0
    7.0046   17.2407  -15.8034 C   0  0  0  0  0  0  0  0  0  0  0  0
    5.8351   16.8576  -14.9278 C   0  0  0  0  0  0  0  0  0  0  0  0
    4.6459   17.5093  -15.6452 C   0  0  0  0  0  0  0  0  0  0  0  0
    4.9841   17.7238  -17.0008 O   0  0  0  0  0  0  0  0  0  0  0  0
    5.6741   15.4602  -14.8398 O   0  0  0  0  0  0  0  0  0  0  0  0
    7.9894   16.2400  -15.8247 O   0  0  0  0  0  0  0  0  0  0  0  0
    5.5202   15.1053  -15.7549 H   0  0  0  0  0  0  0  0  0  0  0  0
    8.7686   16.6255  -16.3050 H   0  0  0  0  0  0  0  0  0  0  0  0
   10.6121   18.4823  -17.7697 C   0  0  0  0  0  0  0  0  0  0  0  0
   10.8253   19.5432  -18.6127 N   0  0  0  0  0  0  0  0  0  0  0  0
    9.7845   20.2158  -19.1898 C   0  0  0  0  0  0  0  0  0  0  0  0
    8.4964   19.7884  -18.8877 C   0  0  0  0  0  0  0  0  0  0  0  0
    8.3112   18.7397  -18.0537 C   0  0  0  0  0  0  0  0  0  0  0  0
    9.3408   18.0680  -17.4841 N   0  0  0  0  0  0  0  0  0  0  0  0
    7.0018   18.4906  -17.9321 N   0  0  0  0  0  0  0  0  0  0  0  0
    6.4200   19.4269  -18.7264 C   0  0  0  0  0  0  0  0  0  0  0  0
    7.3149   20.2533  -19.3336 N   0  0  0  0  0  0  0  0  0  0  0  0
   10.0271   21.3095  -20.0742 N   0  0  0  0  0  0  0  0  0  0  0  0
    9.2355   21.8247  -20.5207 H   0  0  0  0  0  0  0  0  0  0  0  0
   11.0054   21.6104  -20.2806 H   0  0  0  0  0  0  0  0  0  0  0  0
    4.2572   18.8481  -15.0062 C   0  0  0  0  0  0  0  0  0  0  0  0
    5.2451   19.8004  -15.3183 O   0  0  0  0  0  0  0  0  0  0  0  0
    5.6696   20.6603  -13.9062 P   0  0  0  0  0  0  0  0  0  0  0  0
    6.8137   21.6172  -14.1618 O   0  0  0  0  0  0  0  0  0  0  0  0
    6.1324   19.5542  -12.7109 O   0  0  0  0  0  0  0  0  0  0  0  0
    7.0583   19.2928  -12.9441 H   0  0  0  0  0  0  0  0  0  0  0  0
    4.3170   21.5197  -13.3313 O   0  0  0  0  0  0  0  0  0  0  0  0
    4.3664   21.5068  -11.6271 P   0  0  0  0  0  0  0  0  0  0  0  0
    3.4024   22.5636  -11.1354 O   0  0  0  0  0  0  0  0  0  0  0  0
    3.8538   19.9977  -11.0500 O   0  0  0  0  0  0  0  0  0  0  0  0
    4.6861   19.4794  -10.9061 H   0  0  0  0  0  0  0  0  0  0  0  0
    5.9457   21.8530  -11.0805 O   0  0  0  0  0  0  0  0  0  0  0  0
    6.1687   23.5408  -11.1228 P   0  0  0  0  0  0  0  0  0  0  0  0
    7.6357   23.9005  -11.0295 O   0  0  0  0  0  0  0  0  0  0  0  0
    5.5522   24.1240  -12.5873 O   0  0  0  0  0  0  0  0  0  0  0  0
    5.3226   24.2659   -9.8476 O   0  0  0  0  0  0  0  0  0  0  0  0
    5.8268   25.0752  -12.6194 H   0  0  0  0  0  0  0  0  0  0  0  0
    5.5312   25.2310   -9.9193 H   0  0  0  0  0  0  0  0  0  0  0  0
 10 11  2  0  0  0
 10 15  1  0  0  0
 11 12  1  0  0  0
 12 13  2  0  0  0
 12 19  1  0  0  0
 13 14  1  0  0  0
 13 18  1  0  0  0
 14 15  2  0  0  0
 14 16  1  0  0  0
 16 17  1  0  0  0
 16  1  1  0  0  0
 17 18  2  0  0  0
  1  2  1  0  0  0
  1  5  1  0  0  0
  2  3  1  0  0  0
  2  7  1  0  0  0
  3  4  1  0  0  0
  3  6  1  0  0  0
  4  5  1  0  0  0
  4 22  1  0  0  0
 22 23  1  0  0  0
 23 24  1  0  0  0
 24 25  2  0  0  0
 24 26  1  0  0  0
 24 28  1  0  0  0
 26 27  1  0  0  0
 28 29  1  0  0  0
 29 30  2  0  0  0
 29 31  1  0  0  0
 29 33  1  0  0  0
 31 32  1  0  0  0
 33 34  1  0  0  0
 34 35  2  0  0  0
 34 36  1  0  0  0
 34 37  1  0  0  0
 36 38  1  0  0  0
 37 39  1  0  0  0
  6  8  1  0  0  0
  7  9  1  0  0  0
 19 20  1  0  0  0
 19 21  1  0  0  0
M  END
> <COMPND>
    ../0-casp/qXn6xH.pdb 

> <AUTHOR>
    GENERATED BY OPEN BABEL 3.1.0

> <MASTER>
        0    0    0    0    0    0    0    0   47    0   47    0

> <minimizedAffinity>
-5.66798

> <CNNscore>
0.2103396654

> <CNNaffinity>
3.9878673553

> <CNN_VS>
0.8388066888

> <CNNaffinity_variance>
0.1085864753

$$$$



 39 41  0  0  0  0  0  0  0  0999 V2000
   36.2170  -21.6991    8.3340 C   0  0  0  0  0  0  0  0  0  0  0  0
   37.4828  -22.3181    8.9234 C   0  0  0  0  0  0  0  0  0  0  0  0
   37.0866  -23.7637    9.1094 C   0  0  0  0  0  0  0  0  0  0  0  0
   35.5647  -23.6792    9.2829 C   0  0  0  0  0  0  0  0  0  0  0  0
   35.0997  -22.4741    8.7089 O   0  0  0  0  0  0  0  0  0  0  0  0
   37.4297  -24.5551    7.9948 O   0  0  0  0  0  0  0  0  0  0  0  0
   38.5793  -22.1858    8.0562 O   0  0  0  0  0  0  0  0  0  0  0  0
   36.9594  -24.1930    7.1981 H   0  0  0  0  0  0  0  0  0  0  0  0
   38.8544  -21.2323    8.0977 H   0  0  0  0  0  0  0  0  0  0  0  0
   38.9580  -18.2186    8.4506 C   0  0  0  0  0  0  0  0  0  0  0  0
   38.3912  -17.0585    8.9135 N   0  0  0  0  0  0  0  0  0  0  0  0
   37.0873  -17.0154    9.3220 C   0  0  0  0  0  0  0  0  0  0  0  0
   36.3536  -18.1946    9.2562 C   0  0  0  0  0  0  0  0  0  0  0  0
   36.9344  -19.3262    8.7960 C   0  0  0  0  0  0  0  0  0  0  0  0
   38.2249  -19.3710    8.3858 N   0  0  0  0  0  0  0  0  0  0  0  0
   36.0384  -20.3205    8.7951 N   0  0  0  0  0  0  0  0  0  0  0  0
   34.9067  -19.7355    9.2678 C   0  0  0  0  0  0  0  0  0  0  0  0
   35.0638  -18.4175    9.5686 N   0  0  0  0  0  0  0  0  0  0  0  0
   36.5119  -15.7955    9.7889 N   0  0  0  0  0  0  0  0  0  0  0  0
   35.5150  -15.7562   10.0989 H   0  0  0  0  0  0  0  0  0  0  0  0
   37.0879  -14.9256    9.8301 H   0  0  0  0  0  0  0  0  0  0  0  0
   35.1549  -23.7235   10.7600 C   0  0  0  0  0  0  0  0  0  0  0  0
   34.2928  -22.6425   11.0213 O   0  0  0  0  0  0  0  0  0  0  0  0
   34.8023  -21.8414   12.4399 P   0  0  0  0  0  0  0  0  0  0  0  0
   34.1662  -22.4410   13.6751 O   0  0  0  0  0  0  0  0  0  0  0  0
   34.3663  -20.2089   12.3324 O   0  0  0  0  0  0  0  0  0  0  0  0
   33.4011  -20.1833   12.5512 H   0  0  0  0  0  0  0  0  0  0  0  0
   36.4981  -21.9249   12.5665 O   0  0  0  0  0  0  0  0  0  0  0  0
   37.0240  -20.6088   13.5141 P   0  0  0  0  0  0  0  0  0  0  0  0
   37.1990  -19.4237   12.5906 O   0  0  0  0  0  0  0  0  0  0  0  0
   35.8429  -20.2245   14.6677 O   0  0  0  0  0  0  0  0  0  0  0  0
   36.1187  -20.7041   15.4899 H   0  0  0  0  0  0  0  0  0  0  0  0
   38.5051  -20.9843   14.2744 O   0  0  0  0  0  0  0  0  0  0  0  0
   38.1714  -21.8839   15.6814 P   0  0  0  0  0  0  0  0  0  0  0  0
   37.8319  -20.9753   16.8429 O   0  0  0  0  0  0  0  0  0  0  0  0
   36.8491  -22.8930   15.3685 O   0  0  0  0  0  0  0  0  0  0  0  0
   39.5076  -22.8443   16.0816 O   0  0  0  0  0  0  0  0  0  0  0  0
   36.6146  -23.2867   16.2467 H   0  0  0  0  0  0  0  0  0  0  0  0
   39.2505  -23.3020   16.9210 H   0  0  0  0  0  0  0  0  0  0  0  0
 10 11  2  0  0  0
 10 15  1  0  0  0
 11 12  1  0  0  0
 12 13  2  0  0  0
 12 19  1  0  0  0
 13 14  1  0  0  0
 13 18  1  0  0  0
 14 15  2  0  0  0
 14 16  1  0  0  0
 16 17  1  0  0  0
 16  1  1  0  0  0
 17 18  2  0  0  0
  1  2  1  0  0  0
  1  5  1  0  0  0
  2  3  1  0  0  0
  2  7  1  0  0  0
  3  4  1  0  0  0
  3  6  1  0  0  0
  4  5  1  0  0  0
  4 22  1  0  0  0
 22 23  1  0  0  0
 23 24  1  0  0  0
 24 25  2  0  0  0
 24 26  1  0  0  0
 24 28  1  0  0  0
 26 27  1  0  0  0
 28 29  1  0  0  0
 29 30  2  0  0  0
 29 31  1  0  0  0
 29 33  1  0  0  0
 31 32  1  0  0  0
 33 34  1  0  0  0
 34 35  2  0  0  0
 34 36  1  0  0  0
 34 37  1  0  0  0
 36 38  1  0  0  0
 37 39  1  0  0  0
  6  8  1  0  0  0
  7  9  1  0  0  0
 19 20  1  0  0  0
 19 21  1  0  0  0
M  END
> <COMPND>
    ../0-casp/qXn6xH.pdb 

> <AUTHOR>
    GENERATED BY OPEN BABEL 3.1.0

> <MASTER>
        0    0    0    0    0    0    0    0   47    0   47    0

> <minimizedAffinity>
-5.77957

> <CNNscore>
0.1993880123

> <CNNaffinity>
4.2271127701

> <CNN_VS>
0.8428356051

> <CNNaffinity_variance>
0.1142842993

$$$$
